[TITLE]
/Users/santiago/Repos/WST/wst/packages/pywst/pywst/cycling/test_cycles/net3/sh_mi/0.inp
[JUNCTIONS]
;ID                     Elevation       Demand Pattern                 
217                      1.828800     1.528045                            ;
215                      2.133600     5.816285                            ;
213                      2.133600     0.879477                            ;
211                      2.133600     0.546992                            ;
219                      1.219200     2.606887                            ;
131                      1.828800     2.697106                            ;
139                      9.448800     0.371601                            ;
166                     -0.609600     0.164035                            ;
20                      39.319200 0.0                                     ;
120                      0.000000 0.0                                     ;
121                     -0.609600     2.626445                            ;
261                      0.000000 0.0                                     ;
123                      3.352800     0.063090 2                          ;
267                      6.400800 0.0                                     ;
125                      3.352800     2.876913                            ;
265                      0.000000 0.0                                     ;
127                     17.068800     1.114173                            ;
129                     15.544800 0.0                                     ;
269                      0.000000 0.0                                     ;
50                      35.509200 0.0                                     ;
199                     -0.609600     7.527922                            ;
195                      4.724400 0.0                                     ;
197                      7.010400     1.075057                            ;
191                      7.620000     5.167087                            ;
193                      5.486400     4.498962                            ;
115                      4.267200     3.286999                            ;
271                      1.828800 0.0                                     ;
117                      4.145280     7.426347                            ;
273                      2.438400 0.0                                     ;
111                      3.048000     8.955022                            ;
275                      3.048000 0.0                                     ;
113                      0.609600     1.262435                            ;
119                      0.609600    11.112076                            ;
143                     -1.371600     0.391159                            ;
141                      1.219200     0.621438                            ;
247                      5.486400     4.440288                            ;
109                      6.187440    14.599071                            ;
241                      3.962400 0.0                                     ;
243                      4.267200     0.273811                            ;
103                     13.106400     8.403614                            ;
101                     12.801600    11.983983                            ;
249                      5.486400 0.0                                     ;
107                      6.705600     3.447248                            ;
105                      8.686800     8.540520                            ;
35                       3.810000     0.063090 4                          ;
60                       0.000000 0.0                                     ;
61                       0.000000 0.0                                     ;
259                      7.620000 0.0                                     ;
179                      2.438400 0.0                                     ;
177                      2.438400     3.669957                            ;
253                     10.972800     3.439678                            ;
251                      9.144000     1.524259                            ;
173                     -1.219200 0.0                                     ;
257                      5.181600 0.0                                     ;
171                     -1.219200     2.481968                            ;
255                      8.229600     2.548213                            ;
183                      3.352800 0.0                                     ;
181                      2.438400 0.0                                     ;
187                      3.810000 0.0                                     ;
184                      4.876800 0.0                                     ;
185                      4.876800     1.618264                            ;
189                      1.219200     6.808694                            ;
169                     -1.524000 0.0                                     ;
229                      3.200400     4.049129                            ;
164                      1.524000 0.0                                     ;
225                      2.438400     1.438456                            ;
167                     -1.524000     0.918593                            ;
161                      1.219200     0.996825                            ;
163                      1.524000     0.594310                            ;
10                      44.805600 0.0                                     ;
15                       9.753600     0.063090 3                          ;
151                     10.210800     9.115272                            ;
153                     20.177760     2.786694                            ;
601                      0.000000 0.0                                     ;
157                      3.992880     3.267441                            ;
159                      1.828800     2.606887                            ;
239                      3.962400     2.814454                            ;
237                      4.267200     0.984838                            ;
231                      1.524000     1.039726                            ;
40                      40.203120 0.0                                     ;
201                      0.030480     2.814454                            ;
147                      5.638800     0.539421                            ;
203                      0.609600     0.063090 5                          ;
145                      0.304800     1.743182                            ;
205                      6.400800     4.123575                            ;
204                      6.400800 0.0                                     ;
207                      2.743200     4.377829                            ;
206                      0.304800 0.0                                     ;
209                     -0.609600     0.054888                            ;
208                      4.876800 0.0                                     ;
149                      4.876800     1.707852                            ;
263                      0.000000 0.0                                     ;
[RESERVOIRS]
;ID                          Head      Pattern
River                   67.056000                ;
Lake                    50.901600                ;
[TANKS]
;ID                     Elevation   Init Level    Min Level    Max Level     Diameter   Min Volume Volume Curve        
1                       40.203120     3.992880     0.030480     9.784080    25.908000     0.000000                        ;
3                       39.319200     8.839200     1.219200    10.820400    49.987200     0.000000                        ;
2                       35.509200     7.162800     1.981200    12.283440    15.240000     0.000000                        ;
[PIPES]
;ID                  Node1                Node2                      Length     Diameter    Roughness   Minor Loss               Status
217                  191                  193                    158.496000   304.800000   130.000000     0.000000                 OPEN   ;
215                  267                  189                    374.904000   304.800000   130.000000     0.000000                 OPEN   ;
213                  191                  187                    780.288000   304.800000   130.000000     0.000000                 OPEN   ;
211                  169                  269                    196.900800   304.800000   130.000000     0.000000                 OPEN   ;
219                  193                  195                    109.728000   304.800000   130.000000     0.000000                 OPEN   ;
133                  20                   127                    239.268000   508.000000   130.000000     0.000000                 OPEN   ;
131                  125                  127                    987.552000   609.600000   130.000000     0.000000                 OPEN   ;
137                  129                  131                   1975.104000   406.400000   130.000000     0.000000                 OPEN   ;
135                  127                  129                    274.320000   609.600000   130.000000     0.000000                 OPEN   ;
20                   3                    20                      30.175200  2514.600000   199.000000     0.000000                 OPEN   ;
289                  50                   255                    281.940000   254.000000   130.000000     0.000000                 OPEN   ;
281                  241                  247                    135.636000   254.000000   130.000000     0.000000                 OPEN   ;
283                  239                  249                    131.064000   304.800000   130.000000     0.000000                 OPEN   ;
285                  247                  249                      3.048000   304.800000   130.000000     0.000000                 OPEN   ;
287                  247                  255                    423.672000   254.000000   130.000000     0.000000                 OPEN   ;
120                  119                  120                    222.504000   304.800000   130.000000     0.000000                 OPEN   ;
121                  120                  117                    569.976000   304.800000   130.000000     0.000000                 OPEN   ;
122                  121                  120                    624.840000   203.200000   130.000000     0.000000                 OPEN   ;
123                  121                  119                    609.600000   762.000000   141.000000     0.000000                 OPEN   ;
125                  123                  121                    457.200000   762.000000   141.000000     0.000000                 OPEN   ;
129                  121                  125                    283.464000   609.600000   130.000000     0.000000                 OPEN   ;
269                  211                  237                    633.984000   304.800000   130.000000     0.000000                 OPEN   ;
50                   2                    50                      30.175200  2514.600000   199.000000     0.000000                 OPEN   ;
299                  257                  259                    106.680000   203.200000   130.000000     0.000000                 OPEN   ;
297                  120                  257                    196.596000   203.200000   130.000000     0.000000                 OPEN   ;
295                  249                  251                    441.960000   304.800000   130.000000     0.000000                 OPEN   ;
293                  255                  251                    335.280000   203.200000   130.000000     0.000000                 OPEN   ;
291                  255                  253                    335.280000   254.000000   130.000000     0.000000                 OPEN   ;
319                  273                  205                    196.596000   304.800000   130.000000     0.000000                 OPEN   ;
199                  179                  183                     64.008000   304.800000   130.000000     0.000000                 OPEN   ;
195                  181                  177                      9.144000   304.800000   130.000000     0.000000                 OPEN   ;
197                  177                  179                      9.144000   304.800000   130.000000     0.000000                 OPEN   ;
191                  271                  171                    231.648000   609.600000   130.000000     0.000000                 OPEN   ;
193                  35                   181                      9.144000   609.600000   130.000000     0.000000                 OPEN   ;
115                  107                  115                    594.360000   203.200000   130.000000     0.000000                 OPEN   ;
114                  115                  113                    609.600000   203.200000   130.000000     0.000000                 OPEN   ;
117                  263                  105                    830.580000   304.800000   130.000000     0.000000                 OPEN   ;
116                  113                  193                    505.968000   304.800000   130.000000     0.000000                 OPEN   ;
111                  109                  111                    609.600000   304.800000   130.000000     0.000000                 OPEN   ;
275                  239                  241                     10.668000   304.800000   130.000000     0.000000                 OPEN   ;
113                  111                  113                    512.064000   304.800000   130.000000     0.000000                 OPEN   ;
112                  115                  111                    353.568000   304.800000   130.000000     0.000000                 OPEN   ;
313                  269                  189                    196.900800   304.800000   130.000000     0.000000                 OPEN   ;
119                  115                  117                    664.464000   304.800000   130.000000     0.000000                 OPEN   ;
309                  265                  267                    481.584000   203.200000   130.000000     0.000000                 OPEN   ;
301                  259                  263                    426.720000   203.200000   130.000000     0.000000                 OPEN   ;
303                  257                  261                    426.720000   203.200000   130.000000     0.000000                 OPEN   ;
305                  117                  261                    196.596000   304.800000   130.000000     0.000000                 OPEN   ;
307                  261                  263                    106.680000   304.800000   130.000000     0.000000                 OPEN   ;
245                  211                  213                    301.752000   406.400000   130.000000     0.000000                 OPEN   ;
247                  213                  215                   1306.068000   406.400000   130.000000     0.000000                 OPEN   ;
109                  103                  109                   1200.912000   406.400000   130.000000     0.000000                 OPEN   ;
241                  208                  209                    269.748000   304.800000   130.000000     0.000000                 OPEN   ;
240                  206                  208                    155.448000   304.800000   130.000000     0.000000                 OPEN   ;
243                  209                  211                    368.808000   406.400000   130.000000     0.000000                 OPEN   ;
103                  101                  103                    411.480000   406.400000   130.000000     0.000000                 OPEN   ;
101                  10                   101                   4328.160000   457.200000   110.000000     0.000000                 OPEN   ;
249                  215                  217                    505.968000   406.400000   130.000000     0.000000                 OPEN   ;
107                  105                  107                    448.056000   304.800000   130.000000     0.000000                 OPEN   ;
105                  101                  105                    774.192000   304.800000   130.000000     0.000000                 OPEN   ;
330                  60                   601                      0.304800   762.000000   140.000000     0.000000               CLOSED   ;
333                  601                  61                       0.304800   762.000000   140.000000     0.000000                 OPEN   ;
60                   River                60                     375.208800   609.600000   140.000000     0.000000                 OPEN   ;
179                  161                  163                    131.064000   762.000000   141.000000     0.000000                 OPEN   ;
177                  159                  161                    609.600000   762.000000   141.000000     0.000000                 OPEN   ;
175                  157                  159                    886.968000   762.000000   141.000000     0.000000                 OPEN   ;
251                  217                  219                    624.840000   355.600000   130.000000     0.000000                 OPEN   ;
173                  119                  157                    633.984000   762.000000   141.000000     0.000000                 OPEN   ;
257                  217                  225                    475.488000   304.800000   130.000000     0.000000                 OPEN   ;
171                  119                  151                   1054.608000   304.800000   130.000000     0.000000                 OPEN   ;
145                  129                  139                    838.200000   203.200000   130.000000     0.000000                 OPEN   ;
183                  265                  169                    179.832000   762.000000   141.000000     0.000000                 OPEN   ;
180                  163                  164                     45.720000   355.600000   130.000000     0.000000                 OPEN   ;
181                  164                  166                    149.352000   355.600000   130.000000     0.000000                 OPEN   ;
186                  187                  204                     30.449520   203.200000   130.000000     0.000000                 OPEN   ;
187                  169                  171                    387.096000   762.000000   141.000000     0.000000                 OPEN   ;
185                  167                  169                     18.288000   203.200000   130.000000     0.000000                 OPEN   ;
189                  171                  173                     15.240000   762.000000   141.000000     0.000000                 OPEN   ;
311                  193                  267                    356.616000   304.800000   130.000000     0.000000                 OPEN   ;
317                  273                  275                    679.704000   203.200000   130.000000     0.000000                 OPEN   ;
315                  181                  271                     79.248000   609.600000   130.000000     0.000000                 OPEN   ;
169                  125                  153                   1389.888000   203.200000   130.000000     0.000000                 OPEN   ;
229                  173                  199                   1219.200000   609.600000   141.000000     0.000000                 OPEN   ;
225                  111                  197                    850.392000   304.800000   130.000000     0.000000                 OPEN   ;
223                  197                  191                    350.520000   304.800000   130.000000     0.000000                 OPEN   ;
161                  149                  151                    310.896000   203.200000   130.000000     0.000000                 OPEN   ;
221                  161                  195                    701.040000   203.200000   130.000000     0.000000                 OPEN   ;
163                  151                  153                    356.616000   304.800000   130.000000     0.000000                 OPEN   ;
271                  237                  229                    240.792000   203.200000   130.000000     0.000000                 OPEN   ;
273                  237                  239                    155.448000   304.800000   130.000000     0.000000                 OPEN   ;
151                  15                   143                    502.920000   203.200000   130.000000     0.000000                 OPEN   ;
153                  145                  141                   1069.848000   304.800000   130.000000     0.000000                 OPEN   ;
155                  147                  145                    670.560000   304.800000   130.000000     0.000000                 OPEN   ;
159                  147                  149                    268.224000   304.800000   130.000000     0.000000                 OPEN   ;
277                  241                  243                    670.560000   304.800000   130.000000     0.000000                 OPEN   ;
238                  207                  206                    137.160000   304.800000   130.000000     0.000000                 OPEN   ;
239                  275                  207                    435.864000   304.800000   130.000000     0.000000                 OPEN   ;
235                  199                  273                    220.980000   304.800000   130.000000     0.000000                 OPEN   ;
237                  205                  207                    365.760000   304.800000   130.000000     0.000000                 OPEN   ;
231                  199                  201                    192.024000   609.600000   141.000000     0.000000                 OPEN   ;
233                  201                  203                     36.576000   609.600000   130.000000     0.000000                 OPEN   ;
40                   1                    40                      30.175200  2514.600000   199.000000     0.000000                 OPEN   ;
323                  201                  275                     91.440000   304.800000   130.000000     0.000000               CLOSED   ;
321                  163                  265                    365.760000   762.000000   141.000000     0.000000                 OPEN   ;
325                  269                  271                    393.192000   203.200000   130.000000     0.000000                 OPEN   ;
329                  61                   123                  13868.400000   762.000000   140.000000     0.000000                 OPEN   ;
201                  40                   179                    362.712000   304.800000   130.000000     0.000000                 OPEN   ;
147                  139                  141                    624.840000   203.200000   130.000000     0.000000                 OPEN   ;
203                  183                  185                    155.448000   203.200000   130.000000     0.000000                 OPEN   ;
202                  185                  184                     30.449520   203.200000   130.000000     0.000000                 OPEN   ;
205                  204                  185                    403.860000   304.800000   130.000000     0.000000                 OPEN   ;
204                  184                  205                   1380.744000   304.800000   130.000000     0.000000                 OPEN   ;
207                  189                  183                    411.480000   304.800000   130.000000     0.000000                 OPEN   ;
209                  189                  187                    152.400000   203.200000   130.000000     0.000000                 OPEN   ;
149                  143                  141                    426.720000   203.200000   130.000000     0.000000                 OPEN   ;
263                  229                  231                    597.408000   304.800000   130.000000     0.000000                 OPEN   ;
261                  213                  229                    670.560000   203.200000   130.000000     0.000000                 OPEN   ;
[PUMPS]
;ID                  Node1                Node2                Parameters          
335                  60                   61                   HEAD     2                      ;
10                   Lake                 10                   HEAD     1                      ;
[VALVES]
;ID                  Node1                Node2                    Diameter Type      Setting   Minor Loss
[STATUS]
;ID        Setting   
10         CLOSED    
[PATTERNS]
;ID        Multipliers

1 1.340000 1.940000 1.460000 1.440000 0.760000 0.920000 0.850000 1.070000
1 0.960000 1.100000 1.080000 1.190000 1.160000 1.080000 0.960000 0.830000
1 0.790000 0.740000 0.640000 0.640000 0.850000 0.960000 1.240000 1.670000

3 620.000000 620.000000 620.000000 620.000000 620.000000 360.000000 360.000000 0.000000
3 0.000000 0.000000 0.000000 360.000000 360.000000 360.000000 360.000000 360.000000
3 0.000000 0.000000 0.000000 0.000000 0.000000 0.000000 360.000000 360.000000

2 0.000000 0.000000 0.000000 0.000000 0.000000 1219.000000 0.000000 0.000000
2 0.000000 1866.000000 1836.000000 1818.000000 1818.000000 1822.000000 1822.000000 1817.000000
2 1824.000000 1816.000000 1833.000000 1817.000000 1830.000000 1814.000000 1840.000000 1859.000000

5 4439.000000 4531.000000 4511.000000 4582.000000 4531.000000 4582.000000 4572.000000 4613.000000
5 4643.000000 4643.000000 4592.000000 4613.000000 4531.000000 4521.000000 4449.000000 4439.000000
5 4449.000000 4460.000000 4439.000000 4419.000000 4368.000000 4399.000000 4470.000000 4480.000000

4 1637.000000 1706.000000 1719.000000 1719.000000 1791.000000 1819.000000 1777.000000 1842.000000
4 1815.000000 1825.000000 1856.000000 1801.000000 1819.000000 1733.000000 1664.000000 1620.000000
4 1613.000000 1620.000000 1616.000000 1647.000000 1627.000000 1627.000000 1671.000000 1668.000000
[CURVES]
;ID        X-Value    Y-Value   
1            0.000000  31.699200   ;
1          126.180393  28.041600   ;
1          252.360786  19.202400   ;

2            0.000000  60.960000   ;
2          504.721571  42.062400   ;
2          883.262750  26.212800   ;

[CONTROLS]
Link 335 CLOSED IF Node 1 ABOVE 5.82168
Link 330 CLOSED IF Node 1 BELOW 5.21208
Link 10 OPEN AT TIME 1.0
Link 10 CLOSED AT TIME 15.0
Link 335 OPEN IF Node 1 BELOW 5.21208
Link 330 OPEN IF Node 1 ABOVE 5.82168

[REPORT]
Status Yes
Summary yes
[OPTIONS]
UNITS                LPS                 
HEADLOSS             H-W                 
QUALITY              CHEMICAL             mg/L                
VISCOSITY            1.00000000          
DIFFUSIVITY          1.00000000          
SPECIFIC GRAVITY     1.00000000          
TRIALS               40.00000000         
ACCURACY             0.00100000          
CHECKFREQ            2.00000000          
UNBALANCED           CONTINUE                               10
PATTERN              1                   
DEMAND MULTIPLIER    1.00000000          
EMITTER EXPONENT     0.50000000          
TOLERANCE            0.01000000          

[REACTIONS]
ORDER          BULK           1.00000000
ORDER          WALL           1.00000000
ORDER          TANK           1.00000000
GLOBAL         BULK           0.00000000
GLOBAL         WALL           0.00000000
LIMITING       POTENTIAL      0.00000000
ROUGHNESS      CORRELATION    0.00000000

[TIMES]
DURATION             48:0:0
HYDRAULIC TIMESTEP   1:0:0
PATTERN TIMESTEP     1:0:0
PATTERN START        0:0:0
REPORT TIMESTEP      1:0:0
REPORT START         0:0:0
START CLOCKTIME      0:0:0 AM
QUALITY TIMESTEP     0:5:0
RULE TIMESTEP        0:6:0
STATISTIC            NONE      

[COORDINATES]
;Node      X-Coord    Y-Coord   
217        42.11      8.67      
215        39.95      8.73      
213        35.26      6.16      
211        34.20      5.54      
219        44.86      9.32      
131        37.89      29.55     
139        33.28      24.54     
225        43.53      7.38      
20         29.44      26.91     
120        22.08      23.10     
121        23.54      25.50     
261        20.79      21.45     
123        23.37      27.31     
267        23.38      12.95     
125        24.59      25.64     
265        25.39      13.60     
127        29.29      26.40     
129        30.32      26.39     
269        25.03      12.14     
River      24.15      31.06     
50         33.01      3.01      
199        29.42      8.44      
195        23.18      14.72     
197        20.97      15.18     
191        22.10      14.07     
193        22.88      14.35     
115        20.98      19.18     
271        25.97      11.00     
117        21.69      21.28     
273        29.16      7.38      
111        20.21      17.53     
275        31.07      8.29      
113        22.04      16.61     
119        23.70      22.76     
204        23.80      10.90     
206        31.66      6.64      
3          29.41      27.27     
247        35.02      2.05      
109        17.64      18.92     
241        35.87      2.11      
243        37.04      0.00      
103        12.96      21.31     
101        13.81      22.94     
249        35.02      1.81      
107        18.45      20.46     
105        16.97      21.28     
35         25.46      10.52     
60         23.90      29.94     
61         23.71      29.03     
259        20.80      23.40     
179        25.71      10.40     
177        25.71      10.57     
253        32.17      1.88      
251        34.15      1.10      
173        26.87      11.59     
257        21.17      23.32     
171        26.65      11.80     
255        33.51      2.45      
183        25.45      10.18     
181        25.72      10.74     
187        23.64      11.04     