[TITLE]


[JUNCTIONS]
;ID              	Elev        	Demand      	Pattern         
2              0  0 ;
3              0  0 ;
4              0  0 ;
5              0  0 ;
6              0  0 ;
7              0  0 ;
8              0  0 ;
9              0  0 ;
10             0  0.0377712 ;

[RESERVOIRS]
;ID              	Head        	Pattern         
1              5.42 ;

[TANKS]
;ID              	Elevation   	InitLevel   	MinLevel    	MaxLevel    	Diameter    	MinVol      	VolCurve

[PIPES]
;ID              	Node1           	Node2           	Length      	Diameter    	Roughness   	MinorLoss   	Status
2             2             3              49.21         14            0.00016  100 Open          ;
3             3             4              49.21         14            0.00016  0 Open            ;
4             4             5              49.21         14            0.00016  0 Open            ;
5             5             6              49.21         14            0.00016  0 Open            ;
6             6             7              49.21         14            0.00016  0 Open            ;
7             7             8              49.21         14            0.00016  0 Open            ;
8             8             9              49.21         14            0.00016  0 Open            ;
9             9             10             49.21         14            0.00016  0 Open            ;
1             1             2              49.21         14            0.00016  0 Open            ;

[PUMPS]
;ID              	Node1           	Node2           	Parameters

[VALVES]
;ID              	Node1           	Node2           	Diameter    	Type	Setting     	MinorLoss   

[TAGS]

[DEMANDS]
;Junction        	Demand      	Pattern         	Category

[STATUS]
;ID              	Status/Setting

[PATTERNS]
;ID              	Multipliers
;Injection
 1               	1           	1           	1           	1           	1           	1           
 1               	1           	1           	1           	1           	1           	1           
 1               	1           	1           	1           	1           	1           	1           
 1               	1           	1           	1           	1           	1           	1           

[CURVES]
;ID              	X-Value     	Y-Value

[CONTROLS]






[RULES]






[ENERGY]
 Global Efficiency  	75
 Global Price       	0
 Demand Charge      	0

[EMITTERS]
;Junction        	Coefficient

[QUALITY]
;Node            	InitQual

[SOURCES]
;Node            	Type        	Quality     	Pattern

[REACTIONS]
;Type     	Pipe/Tank       	Coefficient


[REACTIONS]
 Order Bulk            	0
 Order Tank            	0
 Order Wall            	0
 Global Bulk           	0
 Global Wall           	0
 Limiting Potential    	0
 Roughness Correlation 	0

[MIXING]
;Tank            	Model

[TIMES]
 Duration           	5:00 
 Hydraulic Timestep 	0:05 
 Quality Timestep   	0:05 
 Pattern Timestep   	1:00 
 Pattern Start      	0:00 
 Report Timestep    	0:05 
 Report Start       	0:00 
 Start ClockTime    	12 am
 Statistic          	NONE

[REPORT]
 Status             	No
 Summary            	No
 Page               	0

[OPTIONS]
Units         MGD           
 Headloss           	D-W
 Specific Gravity   	1
 Viscosity          	1
 Trials             	40
 Accuracy           	0.001
 CHECKFREQ          	2
 MAXCHECK           	10
 DAMPLIMIT          	0
 Unbalanced         	Continue 10
 Pattern            	1
 Demand Multiplier  	1.0
 Emitter Exponent   	0.5
 Quality            	Chemical mg/L
 Diffusivity        	1
 Tolerance          	0.01

[COORDINATES]
;Node            	X-Coord         	Y-Coord
 2               	1004.00         	6352.00         
 3               	2124.00         	6352.00         
 4               	3144.00         	6352.00         
 5               	4264.00         	6352.00         
 6               	5384.00         	6352.00         
 7               	6504.00         	6352.00         
 8               	7624.00         	6352.00         
 9               	8744.00         	6352.00         
 10              	9864.00         	6352.00         
 1               	-205.48         	6352.74         

[VERTICES]
;Link            	X-Coord         	Y-Coord

[LABELS]
;X-Coord           Y-Coord          Label & Anchor Node

[BACKDROP]
 DIMENSIONS     	0.00            	0.00            	10000.00        	10000.00        
 UNITS          	None
 FILE           	
 OFFSET         	0.00            	0.00            

[END]
