[TITLE]

[JUNCTIONS]
;ID              	Elev        	Demand      	Pattern         
 2               	0           	0           	                	;
 3               	0           	0           	                	;
 4               	0           	0           	                	;
 5               	0           	0           	                	;
; 6               	0           	3.14159265359                    	;
 6               	0           	0.34580040827044367                    	;
; 6               	0           	0.07853981633974483                    	;


[RESERVOIRS]
;ID              	Head        	Pattern         
 1               	1        	                	;

[TANKS]
;ID              	Elevation   	InitLevel   	MinLevel    	MaxLevel    	Diameter    	MinVol      	VolCurve

[PIPES]
;ID              	Node1           	Node2           	Length      	Diameter    	Roughness   	MinorLoss   	Status
 1               	1               	2               	32.8084 3.9370143577346433    0.000001     	0           	Open  	;
 2               	2               	3               	32.8084 3.9370143577346433    0.000001     	0         	Open  	;
 3               	3               	4               	32.8084 3.9370143577346433    0.000001     	0           	Open  	;
 4               	4               	5               	32.8084 3.9370143577346433    0.000001     	0           	Open  	;
 5               	5               	6               	32.8084 3.9370143577346433    0.000001     	0           	Open  	;
 

[PUMPS]
;ID              	Node1           	Node2           	Parameters

[VALVES]
;ID              	Node1           	Node2           	Diameter    	Type	Setting     	MinorLoss   

[TAGS]

[DEMANDS]
;Junction        	Demand      	Pattern         	Category

[STATUS]
;ID              	Status/Setting

[PATTERNS]
;ID              	Multipliers
;Injection
 1               	1           	1           	1           	1           	1           	1           
 1               	1           	1           	1           	1           	1           	1           
 1               	1           	1           	1           	1           	1           	1           
 1               	1           	1           	1           	1           	1           	1           

[CURVES]
;ID              	X-Value     	Y-Value

[CONTROLS]






[RULES]






[ENERGY]
 Global Efficiency  	100
 Global Price       	0
 Demand Charge      	0

[EMITTERS]
;Junction        	Coefficient

[QUALITY]
;Node            	InitQual

[SOURCES]
;Node            	Type        	Quality     	Pattern

[REACTIONS]
;Type     	Pipe/Tank       	Coefficient


[REACTIONS]
 Order Bulk            	0
 Order Tank            	0
 Order Wall            	0
 Global Bulk           	0
 Global Wall           	0
 Limiting Potential    	0
 Roughness Correlation 	0

[MIXING]
;Tank            	Model

[TIMES]
 Duration           	20:00
 Hydraulic Timestep 	1:00 
 Quality Timestep       1:00 
 Pattern Timestep   	1:00 
 Pattern Start      	0:00 
 Report Timestep    	1:00 
 Report Start       	0:00 
 Start ClockTime    	12 am
 Statistic          	NONE

[REPORT]
 Status             	No
 Summary            	No
 Page               	0

[OPTIONS]
 Units                  GPM
 Headloss           	D-W
 Specific Gravity   	1
 Viscosity          	1
 Trials             	100
 Accuracy           	0.000001
 CHECKFREQ          	2
 MAXCHECK           	10
 DAMPLIMIT          	0
 Unbalanced         	Continue 10
 Pattern            	1
 Demand Multiplier  	1.0
 Emitter Exponent   	0.5
 Quality            	Chemical mg/L
 Diffusivity        	1
 Tolerance          	0.0

[COORDINATES]
;Node            	X-Coord         	Y-Coord
 1               	0                       0
 2               	1                       0
 3               	2                       0
 4               	3                       0
 5               	4                       0
 6               	5                       0


[VERTICES]
;Link            	X-Coord         	Y-Coord

[LABELS]
;X-Coord           Y-Coord          Label & Anchor Node

[BACKDROP]
 DIMENSIONS     	0.00            	0.00            	10      10
 UNITS          	None
 FILE           	
 OFFSET         	0.00            	0.00            

[END]
