[TITLE]
EPANET Example Network 3
 
5 day periodic simulation used for optimal sensor location
 

[JUNCTIONS]
 10                    147.00
 15                     32.00
 20                    129.00
 35                     12.50
 40                    131.90
 50                    116.50
 60                      0.00
 601                     0.00
 61                      0.00
 101                    42.00
 103                    43.00
 105                    28.50
 107                    22.00
 109                    20.30
 111                    10.00
 113                     2.00
 115                    14.00
 117                    13.60
 119                     2.00
 120                     0.00
 121                    -2.00
 123                    11.00
 125                    11.00
 127                    56.00
 129                    51.00
 131                     6.00
 139                    31.00
 141                     4.00
 143                    -4.50
 145                     1.00
 147                    18.50
 149                    16.00
 151                    33.50
 153                    66.20
 157                    13.10
 159                     6.00
 161                     4.00
 163                     5.00
 164                     5.00
 166                    -2.00
 167                    -5.00
 169                    -5.00
 171                    -4.00
 173                    -4.00
 177                     8.00
 179                     8.00
 181                     8.00
 183                    11.00
 184                    16.00
 185                    16.00
 187                    12.50
 189                     4.00
 191                    25.00
 193                    18.00
 195                    15.50
 197                    23.00
 199                    -2.00
 201                     0.10
 203                     2.00
 204                    21.00
 205                    21.00
 206                     1.00
 207                     9.00
 208                    16.00
 209                    -2.00
 211                     7.00
 213                     7.00
 215                     7.00
 217                     6.00
 219                     4.00
 225                     8.00
 229                    10.50
 231                     5.00
 237                    14.00
 239                    13.00
 241                    13.00
 243                    14.00
 247                    18.00
 249                    18.00
 251                    30.00
 253                    36.00
 255                    27.00
 257                    17.00
 259                    25.00
 261                     0.00
 263                     0.00
 265                     0.00
 267                    21.00
 269                     0.00
 271                     6.00
 273                     8.00
 275                    10.00

[RESERVOIRS]
 River                 220.00 
 Lake                  167.00 

[TANKS]
 1                     131.90        13.10         0.10        32.10        85.00       567.45 
 2                     116.50        23.50         6.50        40.30        50.00     12762.72 
 3                     129.00        29.00         4.00        35.50       164.00     84496.27 

[PIPES]
 20              3               20                     99.00        99.00       199.00         0.00 
 40              1               40                     99.00        99.00       199.00         0.00 
 50              2               50                     99.00        99.00       199.00         0.00 
 60              River           60                   1231.00        24.00       140.00         0.00 
 101             10              101                 14200.00        18.00       110.00         0.00 
 103             101             103                  1350.00        16.00       130.00         0.00 
 105             101             105                  2540.00        12.00       130.00         0.00 
 107             105             107                  1470.00        12.00       130.00         0.00 
 109             103             109                  3940.00        16.00       130.00         0.00 
 111             109             111                  2000.00        12.00       130.00         0.00 
 112             115             111                  1160.00        12.00       130.00         0.00 
 113             111             113                  1680.00        12.00       130.00         0.00 
 114             115             113                  2000.00         8.00       130.00         0.00 
 115             107             115                  1950.00         8.00       130.00         0.00 
 116             113             193                  1660.00        12.00       130.00         0.00 
 117             263             105                  2725.00        12.00       130.00         0.00 
 119             115             117                  2180.00        12.00       130.00         0.00 
 120             119             120                   730.00        12.00       130.00         0.00 
 121             120             117                  1870.00        12.00       130.00         0.00 
 122             121             120                  2050.00         8.00       130.00         0.00 
 123             121             119                  2000.00        30.00       141.00         0.00 
 125             123             121                  1500.00        30.00       141.00         0.00 
 129             121             125                   930.00        24.00       130.00         0.00 
 131             125             127                  3240.00        24.00       130.00         0.00 
 133             20              127                   785.00        20.00       130.00         0.00 
 135             127             129                   900.00        24.00       130.00         0.00 
 137             129             131                  6480.00        16.00       130.00         0.00 
 145             129             139                  2750.00         8.00       130.00         0.00 
 147             139             141                  2050.00         8.00       130.00         0.00 
 149             143             141                  1400.00         8.00       130.00         0.00 
 151             15              143                  1650.00         8.00       130.00         0.00 
 153             145             141                  3510.00        12.00       130.00         0.00 
 155             147             145                  2200.00        12.00       130.00         0.00 
 159             147             149                   880.00        12.00       130.00         0.00 
 161             149             151                  1020.00         8.00       130.00         0.00 
 163             151             153                  1170.00        12.00       130.00         0.00 
 169             125             153                  4560.00         8.00       130.00         0.00 
 171             119             151                  3460.00        12.00       130.00         0.00 
 173             119             157                  2080.00        30.00       141.00         0.00 
 175             157             159                  2910.00        30.00       141.00         0.00 
 177             159             161                  2000.00        30.00       141.00         0.00 
 179             161             163                   430.00        30.00       141.00         0.00 
 180             163             164                   150.00        14.00       130.00         0.00 
 181             164             166                   490.00        14.00       130.00         0.00 
 183             265             169                   590.00        30.00       141.00         0.00 
 185             167             169                    60.00         8.00       130.00         0.00 
 186             187             204                    99.90         8.00       130.00         0.00 
 187             169             171                  1270.00        30.00       141.00         0.00 
 189             171             173                    50.00        30.00       141.00         0.00 
 191             271             171                   760.00        24.00       130.00         0.00 
 193             35              181                    30.00        24.00       130.00         0.00 
 195             181             177                    30.00        12.00       130.00         0.00 
 197             177             179                    30.00        12.00       130.00         0.00 
 199             179             183                   210.00        12.00       130.00         0.00 
 201             40              179                  1190.00        12.00       130.00         0.00 
 202             185             184                    99.90         8.00       130.00         0.00 
 203             183             185                   510.00         8.00       130.00         0.00 
 204             184             205                  4530.00        12.00       130.00         0.00 
 205             204             185                  1325.00        12.00       130.00         0.00 
 207             189             183                  1350.00        12.00       130.00         0.00 
 209             189             187                   500.00         8.00       130.00         0.00 
 211             169             269                   646.00        12.00       130.00         0.00 
 213             191             187                  2560.00        12.00       130.00         0.00 
 215             267             189                  1230.00        12.00       130.00         0.00 
 217             191             193                   520.00        12.00       130.00         0.00 
 219             193             195                   360.00        12.00       130.00         0.00 
 221             161             195                  2300.00         8.00       130.00         0.00 
 223             197             191                  1150.00        12.00       130.00         0.00 
 225             111             197                  2790.00        12.00       130.00         0.00 
 229             173             199                  4000.00        24.00       141.00         0.00 
 231             199             201                   630.00        24.00       141.00         0.00 
 233             201             203                   120.00        24.00       130.00         0.00 
 235             199             273                   725.00        12.00       130.00         0.00 
 237             205             207                  1200.00        12.00       130.00         0.00 
 238             207             206                   450.00        12.00       130.00         0.00 
 239             275             207                  1430.00        12.00       130.00         0.00 
 240             206             208                   510.00        12.00       130.00         0.00 
 241             208             209                   885.00        12.00       130.00         0.00 
 243             209             211                  1210.00        16.00       130.00         0.00 
 245             211             213                   990.00        16.00       130.00         0.00 
 247             213             215                  4285.00        16.00       130.00         0.00 
 249             215             217                  1660.00        16.00       130.00         0.00 
 251             217             219                  2050.00        14.00       130.00         0.00 
 257             217             225                  1560.00        12.00       130.00         0.00 
 261             213             229                  2200.00         8.00       130.00         0.00 
 263             229             231                  1960.00        12.00       130.00         0.00 
 269             211             237                  2080.00        12.00       130.00         0.00 
 271             237             229                   790.00         8.00       130.00         0.00 
 273             237             239                   510.00        12.00       130.00         0.00 
 275             239             241                    35.00        12.00       130.00         0.00 
 277             241             243                  2200.00        12.00       130.00         0.00 
 281             241             247                   445.00        10.00       130.00         0.00 
 283             239             249                   430.00        12.00       130.00         0.00 
 285             247             249                    10.00        12.00       130.00         0.00 
 287             247             255                  1390.00        10.00       130.00         0.00 
 289             50              255                   925.00        10.00       130.00         0.00 
 291             255             253                  1100.00        10.00       130.00         0.00 
 293             255             251                  1100.00         8.00       130.00         0.00 
 295             249             251                  1450.00        12.00       130.00         0.00 
 297             120             257                   645.00         8.00       130.00         0.00 
 299             257             259                   350.00         8.00       130.00         0.00 
 301             259             263                  1400.00         8.00       130.00         0.00 
 303             257             261                  1400.00         8.00       130.00         0.00 
 305             117             261                   645.00        12.00       130.00         0.00 
 307             261             263                   350.00        12.00       130.00         0.00 
 309             265             267                  1580.00         8.00       130.00         0.00 
 311             193             267                  1170.00        12.00       130.00         0.00 
 313             269             189                   646.00        12.00       130.00         0.00 
 315             181             271                   260.00        24.00       130.00         0.00 
 317             273             275                  2230.00         8.00       130.00         0.00 
 319             273             205                   645.00        12.00       130.00         0.00 
 321             163             265                  1200.00        30.00       141.00         0.00 
 323             201             275                   300.00        12.00       130.00         0.00 
 325             269             271                  1290.00         8.00       130.00         0.00 
 329             61              123                 45500.00        30.00       140.00         0.00 
 330             60              601                     1.00        30.00       140.00         0.00 CLOSED
 333             601             61                      1.00        30.00       140.00         0.00 

[PUMPS]
 10              Lake            10               HEAD 1
 335             60              61               HEAD 2

[VALVES]

[DEMANDS]
 10                      0.00    rtxNewPat_16
 15                      1.00    rtxNewPat_14
 20                      0.00    rtxNewPat_1
 35                      1.00    rtxNewPat_4
 40                      0.00    rtxNewPat_7
 50                      0.00    rtxNewPat_14
 60                      0.00    rtxNewPat_2
 601                     0.00    rtxNewPat_8
 61                      0.00    rtxNewPat_1
 101                   189.95    rtxNewPat_10
 103                   133.20    rtxNewPat_5
 105                   135.37    rtxNewPat_7
 107                    54.64    rtxNewPat_4
 109                   231.40    rtxNewPat_11
 111                   141.94    rtxNewPat_15
 113                    20.01    rtxNewPat_4
 115                    52.10    rtxNewPat_7
 117                   117.71    rtxNewPat_8
 119                   176.13    rtxNewPat_11
 120                     0.00    rtxNewPat_2
 121                    41.63    rtxNewPat_7
 123                     1.00    rtxNewPat_1
 125                    45.60    rtxNewPat_15
 127                    17.66    rtxNewPat_14
 129                     0.00    rtxNewPat_7
 131                    42.75    rtxNewPat_9
 139                     5.89    rtxNewPat_11
 141                     9.85    rtxNewPat_11
 143                     6.20    rtxNewPat_12
 145                    27.63    rtxNewPat_14
 147                     8.55    rtxNewPat_7
 149                    27.07    rtxNewPat_12
 151                   144.48    rtxNewPat_12
 153                    44.17    rtxNewPat_7
 157                    51.79    rtxNewPat_16
 159                    41.32    rtxNewPat_3
 161                    15.80    rtxNewPat_4
 163                     9.42    rtxNewPat_2
 164                     0.00    rtxNewPat_11
 166                     2.60    rtxNewPat_5
 167                    14.56    rtxNewPat_11
 169                     0.00    rtxNewPat_15
 171                    39.34    rtxNewPat_12
 173                     0.00    rtxNewPat_15
 177                    58.17    rtxNewPat_10
 179                     0.00    rtxNewPat_10
 181                     0.00    rtxNewPat_3
 183                     0.00    rtxNewPat_16
 184                     0.00    rtxNewPat_1
 185                    25.65    rtxNewPat_14
 187                     0.00    rtxNewPat_2
 189                   107.92    rtxNewPat_8
 191                    81.90    rtxNewPat_14
 193                    71.31    rtxNewPat_1
 195                     0.00    rtxNewPat_6
 197                    17.04    rtxNewPat_5
 199                   119.32    rtxNewPat_9
 201                    44.61    rtxNewPat_16
 203                     1.00    rtxNewPat_15
 204                     0.00    rtxNewPat_5
 205                    65.36    rtxNewPat_14
 206                     0.00    rtxNewPat_6
 207                    69.39    rtxNewPat_1
 208                     0.00    rtxNewPat_10
 209                     0.87    rtxNewPat_12
 211                     8.67    rtxNewPat_1
 213                    13.94    rtxNewPat_12
 215                    92.19    rtxNewPat_16
 217                    24.22    rtxNewPat_2
 219                    41.32    rtxNewPat_6
 225                    22.80    rtxNewPat_5
 229                    64.18    rtxNewPat_12
 231                    16.48    rtxNewPat_5
 237                    15.61    rtxNewPat_16
 239                    44.61    rtxNewPat_11
 241                     0.00    rtxNewPat_14
 243                     4.34    rtxNewPat_9
 247                    70.38    rtxNewPat_13
 249                     0.00    rtxNewPat_14
 251                    24.16    rtxNewPat_10
 253                    54.52    rtxNewPat_11
 255                    40.39    rtxNewPat_16
 257                     0.00    rtxNewPat_2
 259                     0.00    rtxNewPat_8
 261                     0.00    rtxNewPat_16
 263                     0.00    rtxNewPat_7
 265                     0.00    rtxNewPat_12
 267                     0.00    rtxNewPat_9
 269                     0.00    rtxNewPat_7
 271                     0.00    rtxNewPat_11
 273                     0.00    rtxNewPat_14
 275                     0.00    rtxNewPat_5

[EMITTERS]

[STATUS]
 330             closed
 10              closed

[PATTERNS]
 1                     1.3400       1.9400       1.4600       1.4400       0.7600       0.9200
 1                     0.8500       1.0700       0.9600       1.1000       1.0800       1.1900
 1                     1.1600       1.0800       0.9600       0.8300       0.7900       0.7400
 1                     0.6400       0.6400       0.8500       0.9600       1.2400       1.6700
 2                     0.0000       0.0000       0.0000       0.0000       0.0000    1219.0000
 2                     0.0000       0.0000       0.0000    1866.0000    1836.0000    1818.0000
 2                  1818.0000    1822.0000    1822.0000    1817.0000    1824.0000    1816.0000
 2                  1833.0000    1817.0000    1830.0000    1814.0000    1840.0000    1859.0000
 3                   620.0000     620.0000     620.0000     620.0000     620.0000     360.0000
 3                   360.0000       0.0000       0.0000       0.0000       0.0000     360.0000
 3                   360.0000     360.0000     360.0000     360.0000       0.0000       0.0000
 3                     0.0000       0.0000       0.0000       0.0000     360.0000     360.0000
 4                  1637.0000    1706.0000    1719.0000    1719.0000    1791.0000    1819.0000
 4                  1777.0000    1842.0000    1815.0000    1825.0000    1856.0000    1801.0000
 4                  1819.0000    1733.0000    1664.0000    1620.0000    1613.0000    1620.0000
 4                  1616.0000    1647.0000    1627.0000    1627.0000    1671.0000    1668.0000
 5                  4439.0000    4531.0000    4511.0000    4582.0000    4531.0000    4582.0000
 5                  4572.0000    4613.0000    4643.0000    4643.0000    4592.0000    4613.0000
 5                  4531.0000    4521.0000    4449.0000    4439.0000    4449.0000    4460.0000
 5                  4439.0000    4419.0000    4368.0000    4399.0000    4470.0000    4480.0000
 rtxNewPat_1           0.9593       0.6663       0.5158       0.5018       0.4513       0.4286
 rtxNewPat_1           0.3412       0.4758       0.5862       0.5022       0.7022       0.6404
 rtxNewPat_1           0.6781       0.6011       0.7277       0.5374       0.5929       0.4371
 rtxNewPat_1           0.6118       0.5834       0.8684       0.8594       1.1716       0.8106
 rtxNewPat_1           1.0182       0.6136       0.5379       0.5598       0.4175       0.4876
 rtxNewPat_1           0.4141       0.3933       0.5286       0.4564       0.6993       0.5864
 rtxNewPat_1           0.7936       0.6047       0.7512       0.5239       0.5799       0.4616
 rtxNewPat_1           0.5210       0.5085       0.8471       0.8564       1.0993       0.6879
 rtxNewPat_1           0.9517       0.5905       0.5023       0.5836       0.4720       0.3806
 rtxNewPat_1           0.4651       0.4864       0.5654       0.4863       0.7229       0.6536
 rtxNewPat_1           0.7652       0.5838       0.7635       0.6785       0.6139       0.4821
 rtxNewPat_1           0.5844       0.5361       0.7709       0.9615       1.2214       0.8417
 rtxNewPat_1           0.8899       0.5338       0.5524       0.5499       0.4821       0.4792
 rtxNewPat_1           0.5320       0.3895       0.6270       0.4585       0.5073       0.6500
 rtxNewPat_1           0.8270       0.5570       0.7306       0.5507       0.6083       0.4950
 rtxNewPat_1           0.5538       0.5858       0.6897       1.0198       1.1775       0.8471
 rtxNewPat_1           0.9065       0.4452       0.5762       0.5166       0.4306       0.4551
 rtxNewPat_1           0.6856       0.3834       0.6104       0.5608       0.5402       0.5842
 rtxNewPat_1           0.9197       0.4393       0.6962       0.5276       0.6482       0.4310
 rtxNewPat_1           0.6533       0.5952       0.6218       1.0689       1.1939       0.9066
 rtxNewPat_1           0.7307       0.4386       0.5161       0.4795       0.3717       0.3246
 rtxNewPat_1           0.6893       0.4171       0.6101       0.3734       0.6317       0.5977
 rtxNewPat_1           1.0290       0.4213       0.8069       0.4947       0.6558       0.3424
 rtxNewPat_1           0.7422       0.5659       0.7414       1.0192       1.2105       1.1041
 rtxNewPat_1           0.8772       0.6116       0.5492       0.4957       0.3958       0.2937
 rtxNewPat_1           0.7278       0.3589       0.8454       0.3183       0.6465       0.4666
 rtxNewPat_1           1.1991       0.3161       0.7212       0.5549       0.6793       0.2067
 rtxNewPat_1           0.7420       0.4843       0.7749       0.9470       1.1070       0.9376
 rtxNewPat_1           0.8459       0.6545       0.5815       0.5113       0.3798       0.2992
 rtxNewPat_1           0.8573       0.2582       0.8401       0.2896       0.7173       0.3296
 rtxNewPat_1           1.3265       0.3394       0.8477       0.5290       0.8323       0.3340
 rtxNewPat_1           0.6929       0.4653       0.7321       1.0488       1.2153       0.9142
 rtxNewPat_1           0.7387       0.6794       0.5981       0.4887       0.3538       0.2068
 rtxNewPat_1           0.8039       0.1598       0.7305       0.3996       0.6922       0.2901
 rtxNewPat_1           1.3132       0.1666       0.8478       0.4616       0.6610       0.3164
 rtxNewPat_1           0.8123       0.5355       0.6500       0.8643       1.2738       0.8676
 rtxNewPat_1           0.7326       0.6901       0.6186       0.4550       0.3697       0.2844
 rtxNewPat_1           0.9315       0.2341       0.6594       0.4810       0.5465       0.3814
 rtxNewPat_1           1.4343       0.1323       0.8297       0.5607       0.8009       0.1529
 rtxNewPat_1           0.8785       0.5818       0.8283       0.8872       1.3341       0.7655
 rtxNewPat_2           1.0165       0.7052       0.5661       0.5434       0.3952       0.3344
 rtxNewPat_2           0.4039       0.4171       0.5096       0.4902       0.5488       0.6308
 rtxNewPat_2           0.6701       0.6692       0.6446       0.5898       0.6185       0.4543
 rtxNewPat_2           0.5623       0.4812       0.8592       0.7841       1.1872       0.7924
 rtxNewPat_2           1.0356       0.7383       0.5999       0.4276       0.3558       0.2455
 rtxNewPat_2           0.3843       0.4347       0.5546       0.5448       0.5815       0.6733
 rtxNewPat_2           0.6498       0.6748       0.6098       0.5885       0.5515       0.4190
 rtxNewPat_2           0.5016       0.4445       0.8691       0.7098       1.1151       0.8265
 rtxNewPat_2           0.9903       0.7039       0.6940       0.4681       0.3956       0.2765
 rtxNewPat_2           0.4645       0.3328       0.6528       0.5101       0.6668       0.6376
 rtxNewPat_2           0.5844       0.7285       0.7197       0.6758       0.4450       0.5454
 rtxNewPat_2           0.4789       0.4944       0.7821       0.6515       1.0117       0.8349
 rtxNewPat_2           0.9676       0.7209       0.7093       0.4880       0.4454       0.1870
 rtxNewPat_2           0.4696       0.2600       0.6529       0.4597       0.5489       0.7655
 rtxNewPat_2           0.3884       0.6719       0.8038       0.7214       0.4107       0.5075
 rtxNewPat_2           0.5035       0.6496       0.8591       0.7936       1.0666       0.8958
 rtxNewPat_2           0.8697       0.5688       0.8802       0.4703       0.3773       0.4383
 rtxNewPat_2           0.5407       0.1720       0.6025       0.6473       0.4532       0.8611
 rtxNewPat_2           0.3863       0.6577       0.9074       0.7054       0.4800       0.3891
 rtxNewPat_2           0.5205       0.6724       0.8336       0.8114       1.0711       0.7891
 rtxNewPat_2           0.9534       0.3842       0.9032       0.6015       0.1669       0.4177
 rtxNewPat_2           0.6227       0.2378       0.5828       0.6645       0.4800       0.7988
 rtxNewPat_2           0.2758       0.6826       0.9185       0.8069       0.5567       0.2889
 rtxNewPat_2           0.4947       0.6480       0.8538       0.8173       1.2885       0.7832
 rtxNewPat_2           1.0792       0.4019       0.6785       0.7324       0.1104       0.3432
 rtxNewPat_2           0.6401       0.2260       0.6150       0.6610       0.5457       0.9087
 rtxNewPat_2           0.0856       0.7646       0.8253       0.8847       0.6362       0.2828
 rtxNewPat_2           0.4040       0.5611       0.8877       0.7346       1.3356       0.5892
 rtxNewPat_2           1.1272       0.5491       0.6430       0.7758       0.0880       0.3603
 rtxNewPat_2           0.6082       0.1779       0.5643       0.7395       0.3579       1.0753
 rtxNewPat_2           0.0037       0.7890       0.8309       0.8261       0.6733       0.2665
 rtxNewPat_2           0.4777       0.5059       0.8892       0.7370       1.5475       0.5005
 rtxNewPat_2           1.0974       0.6514       0.5665       0.9123       0.0964       0.2203
 rtxNewPat_2           0.5596       0.2848       0.4988       0.8016       0.3104       1.0727
 rtxNewPat_2           0.1516       0.6107       0.8465       0.7411       0.7935       0.2866
 rtxNewPat_2           0.4471       0.4328       0.9570       0.5898       1.4679       0.5626
 rtxNewPat_2           1.0312       0.6868       0.4943       0.8475       0.2030       0.3608
 rtxNewPat_2           0.4169       0.1789       0.5028       0.6688       0.2457       1.2429
 rtxNewPat_2           0.2603       0.6288       0.8957       0.6414       0.7557       0.3830
 rtxNewPat_2           0.5314       0.2498       1.0773       0.6383       1.4288       0.6202
 rtxNewPat_3           1.0185       0.7271       0.5078       0.5269       0.3733       0.3617
 rtxNewPat_3           0.4708       0.4462       0.5514       0.5123       0.7102       0.7520
 rtxNewPat_3           0.6801       0.6090       0.5430       0.6227       0.6652       0.5748
 rtxNewPat_3           0.5097       0.5543       0.8895       0.8524       1.1916       0.6709